3
Lattice="100.0 0.0 0.0 0.0 100.0 0.0 0.0 0.0 100.0" Properties=species:S:1:pos:R:3:F_lj:R:3 _Index_FullTrainingSet=1 E_lj=37.6864504997281 pbc="F F F"
O       -1.16954488      -0.00000000       0.00000000       1.94959641       0.00000000       0.00000000
C        0.00000000       0.00000000      -0.00000000    -686.51940142       0.00000000       0.00000000
O        0.80590852       0.00000000      -0.00000000     684.56980502       0.00000000       0.00000000
3
Lattice="100.0 0.0 0.0 0.0 100.0 0.0 0.0 0.0 100.0" Properties=species:S:1:pos:R:3:F_lj:R:3 _Index_FullTrainingSet=11 E_lj=-0.9622857407222333 pbc="F F F"
O       -1.16954488      -0.00000000       0.00000000       1.75204659       0.00000000       0.00000000
C        0.00000000       0.00000000      -0.00000000      -1.69978766       0.00000000       0.00000000
O        2.39681761       0.00000000       0.00000000      -0.05225893       0.00000000       0.00000000
3
Lattice="100.0 0.0 0.0 0.0 100.0 0.0 0.0 0.0 100.0" Properties=species:S:1:pos:R:3:F_lj:R:3 _Index_FullTrainingSet=26 E_lj=-0.946778041737247 pbc="F F F"
O       -1.16954488      -0.00000000       0.00000000       1.75204659       0.00000000       0.00000000
C        0.00000000       0.00000000      -0.00000000      -1.75204659       0.00000000       0.00000000
O        4.71499943       0.00000000       0.00000000       0.00000000       0.00000000       0.00000000
3
Lattice="100.0 0.0 0.0 0.0 100.0 0.0 0.0 0.0 100.0" Properties=species:S:1:pos:R:3:F_lj:R:3 _Index_FullTrainingSet=19 E_lj=-0.946778041737247 pbc="F F F"
O       -1.16954488      -0.00000000       0.00000000       1.75204659       0.00000000       0.00000000
C        0.00000000       0.00000000      -0.00000000      -1.75204659       0.00000000       0.00000000
O        3.62409033       0.00000000       0.00000000       0.00000000       0.00000000       0.00000000
3
Lattice="100.0 0.0 0.0 0.0 100.0 0.0 0.0 0.0 100.0" Properties=species:S:1:pos:R:3:F_lj:R:3 _Index_FullTrainingSet=13 E_lj=-0.952319955906694 pbc="F F F"
O       -1.16954488      -0.00000000       0.00000000       1.75204659       0.00000000       0.00000000
C        0.00000000       0.00000000      -0.00000000      -1.72734391       0.00000000       0.00000000
O        2.66954488       0.00000000       0.00000000      -0.02470268       0.00000000       0.00000000
3
Lattice="100.0 0.0 0.0 0.0 100.0 0.0 0.0 0.0 100.0" Properties=species:S:1:pos:R:3:F_lj:R:3 _Index_FullTrainingSet=10 E_lj=-0.9748820420504242 pbc="F F F"
O       -1.16954488      -0.00000000       0.00000000       1.75204659       0.00000000       0.00000000
C        0.00000000       0.00000000      -0.00000000      -1.66185250       0.00000000       0.00000000
O        2.21499943       0.00000000       0.00000000      -0.09019409       0.00000000       0.00000000
3
Lattice="100.0 0.0 0.0 0.0 100.0 0.0 0.0 0.0 100.0" Properties=species:S:1:pos:R:3:F_lj:R:3 _Index_FullTrainingSet=3 E_lj=-1.9630289630844797 pbc="F F F"
O       -1.16954488      -0.00000000       0.00000000       1.82292822       0.00000000       0.00000000
C        0.00000000       0.00000000      -0.00000000      -1.66040137       0.00000000       0.00000000
O        1.12409033       0.00000000      -0.00000000      -0.16252684       0.00000000       0.00000000
3
Lattice="100.0 0.0 0.0 0.0 100.0 0.0 0.0 0.0 100.0" Properties=species:S:1:pos:R:3:F_lj:R:3 _Index_FullTrainingSet=17 E_lj=-0.946778041737247 pbc="F F F"
O       -1.16954488      -0.00000000       0.00000000       1.75204659       0.00000000       0.00000000
C        0.00000000       0.00000000      -0.00000000      -1.75204659       0.00000000       0.00000000
O        3.30590852       0.00000000       0.00000000       0.00000000       0.00000000       0.00000000
3
Lattice="100.0 0.0 0.0 0.0 100.0 0.0 0.0 0.0 100.0" Properties=species:S:1:pos:R:3:F_lj:R:3 _Index_FullTrainingSet=15 E_lj=-0.9469142984200198 pbc="F F F"
O       -1.16954488      -0.00000000       0.00000000       1.75204659       0.00000000       0.00000000
C        0.00000000       0.00000000      -0.00000000      -1.74078493       0.00000000       0.00000000
O        2.98772670       0.00000000       0.00000000      -0.01126166       0.00000000       0.00000000
3
Lattice="100.0 0.0 0.0 0.0 100.0 0.0 0.0 0.0 100.0" Properties=species:S:1:pos:R:3:F_lj:R:3 _Index_FullTrainingSet=27 E_lj=-0.946778041737247 pbc="F F F"
O       -1.16954488      -0.00000000       0.00000000       1.75204659       0.00000000       0.00000000
C        0.00000000       0.00000000      -0.00000000      -1.75204659       0.00000000       0.00000000
O        4.85136306       0.00000000       0.00000000       0.00000000       0.00000000       0.00000000
3
Lattice="100.0 0.0 0.0 0.0 100.0 0.0 0.0 0.0 100.0" Properties=species:S:1:pos:R:3:F_lj:R:3 _Index_FullTrainingSet=21 E_lj=-0.946778041737247 pbc="F F F"
O       -1.16954488      -0.00000000       0.00000000       1.75204659       0.00000000       0.00000000
C        0.00000000       0.00000000      -0.00000000      -1.75204659       0.00000000       0.00000000
O        3.94227215       0.00000000       0.00000000       0.00000000       0.00000000       0.00000000
3
Lattice="100.0 0.0 0.0 0.0 100.0 0.0 0.0 0.0 100.0" Properties=species:S:1:pos:R:3:F_lj:R:3 _Index_FullTrainingSet=7 E_lj=-1.0719901327713648 pbc="F F F"
O       -1.16954488      -0.00000000       0.00000000       1.76495177       0.00000000       0.00000000
C        0.00000000       0.00000000      -0.00000000      -1.32484452       0.00000000       0.00000000
O        1.76045397       0.00000000       0.00000000      -0.44010725       0.00000000       0.00000000
3
Lattice="100.0 0.0 0.0 0.0 100.0 0.0 0.0 0.0 100.0" Properties=species:S:1:pos:R:3:F_lj:R:3 _Index_FullTrainingSet=18 E_lj=-0.946778041737247 pbc="F F F"
O       -1.16954488      -0.00000000       0.00000000       1.75204659       0.00000000       0.00000000
C        0.00000000       0.00000000      -0.00000000      -1.75204659       0.00000000       0.00000000
O        3.44227215       0.00000000       0.00000000       0.00000000       0.00000000       0.00000000
3
Lattice="100.0 0.0 0.0 0.0 100.0 0.0 0.0 0.0 100.0" Properties=species:S:1:pos:R:3:F_lj:R:3 _Index_FullTrainingSet=14 E_lj=-0.9487276967963708 pbc="F F F"
O       -1.16954488      -0.00000000       0.00000000       1.75204659       0.00000000       0.00000000
C        0.00000000       0.00000000      -0.00000000      -1.73644301       0.00000000       0.00000000
O        2.85136306       0.00000000       0.00000000      -0.01560358       0.00000000       0.00000000
3
Lattice="100.0 0.0 0.0 0.0 100.0 0.0 0.0 0.0 100.0" Properties=species:S:1:pos:R:3:F_lj:R:3 _Index_FullTrainingSet=2 E_lj=-0.6438122260115658 pbc="F F F"
O       -1.16954488      -0.00000000       0.00000000       1.86023314       0.00000000       0.00000000
C        0.00000000       0.00000000      -0.00000000     -31.94401496       0.00000000       0.00000000
O        0.98772670       0.00000000      -0.00000000      30.08378183       0.00000000       0.00000000
